Program Version,EnergyPlus, Version 9.0.1-bb7ca4f0da, YMD=2020.01.23 12:03,
   ** Warning ** Weather file location will be used rather than entered (IDF) Location object.
   **   ~~~   ** ..Location object=CHICAGO_IL_USA TMY2-94846
   **   ~~~   ** ..Weather File Location=Denver Centennial  Golden   Nr CO USA TMY3 WMO#=724666
   **   ~~~   ** ..due to location differences, Latitude difference=[2.04] degrees, Longitude difference=[17.43] degrees.
   **   ~~~   ** ..Time Zone difference=[1.0] hour(s), Elevation difference=[862.63] percent, [1639.00] meters.
   ** Warning ** SetUpDesignDay: Entered DesignDay Barometric Pressure=99063 differs by more than 10% from Standard Barometric Pressure=81198.
   **   ~~~   ** ...occurs in DesignDay=CHICAGO_IL_USA ANNUAL HEATING 99% DESIGN CONDITIONS DB, Standard Pressure (based on elevation) will be used.
   ** Warning ** SetUpDesignDay: Entered DesignDay Barometric Pressure=99063 differs by more than 10% from Standard Barometric Pressure=81198.
   **   ~~~   ** ...occurs in DesignDay=CHICAGO_IL_USA ANNUAL COOLING 1% DESIGN CONDITIONS DB/MCWB, Standard Pressure (based on elevation) will be used.
   ************* Testing Individual Branch Integrity
   ************* All Branches passed integrity testing
   ************* Testing Individual Supply Air Path Integrity
   ************* All Supply Air Paths passed integrity testing
   ************* Testing Individual Return Air Path Integrity
   ************* All Return Air Paths passed integrity testing
   ************* No node connection errors were found.
   ************* Beginning Simulation
   ************* Simulation Error Summary *************
   ************* There are 2 unused objects in input.
   ************* Use Output:Diagnostics,DisplayUnusedObjects; to see them.
   ************* There are 3 unused schedules in input.
   ************* Use Output:Diagnostics,DisplayUnusedSchedules; to see them.
   ************* EnergyPlus Warmup Error Summary. During Warmup: 0 Warning; 0 Severe Errors.
   ************* EnergyPlus Sizing Error Summary. During Sizing: 0 Warning; 0 Severe Errors.
   ************* EnergyPlus Completed Successfully-- 3 Warning; 0 Severe Errors; Elapsed Time=00hr 00min  0.79sec
